* FLIP FLOP LAYOUT LEVEL

.options POST=1 parhier=local

.subckt flip-flop c cn d q rn
cg3303 532:vdd gnd  c=4.80879e-16
c3302 532:vdd x12|src  c=1.11383e-19
c3301 532:vdd 259:4  c=1.46892e-17
c3300 532:vdd 303:2  c=1.17625e-18
c3299 532:vdd 246:4  c=1.03155e-17
c3298 532:vdd 433:3  c=2.50243e-18
c3297 532:vdd 426:3  c=1.50108e-17
c3296 532:vdd 147:16  c=4.79229e-17
c3295 532:vdd 427:3  c=3.13789e-18
c3294 532:vdd 151:16  c=4.85048e-17
c3293 532:vdd 425:3  c=1.59881e-17
c3292 532:vdd x17|drn  c=2.81188e-20
c3291 532:vdd 218:9  c=2.59473e-18
c3290 532:vdd 305:2  c=1.53055e-18
c3289 532:vdd 306:2  c=2.13918e-17
c3288 532:vdd 350:2  c=1.71922e-17
c3287 532:vdd 319:2  c=1.49018e-17
c3286 532:vdd 307:2  c=9.95111e-18
c3285 532:vdd 135:14  c=4.43255e-17
c3284 532:vdd 65:d  c=1.15209e-18
c3283 532:vdd 61:d  c=1.58855e-18
c3282 532:vdd 32:rn  c=1.21259e-17
c3281 532:vdd 220:9  c=2.81847e-18
c3280 532:vdd x21|src  c=7.18097e-20
c3279 532:vdd 71:d  c=1.15209e-18
c3278 532:vdd 56:d  c=1.17806e-18
c3277 532:vdd x24|drn  c=1.25725e-19
c3276 532:vdd x24|src  c=7.43815e-20
c3275 532:vdd x25|drn  c=1.32484e-19
c3274 532:vdd 58:d  c=1.95271e-19
c3273 532:vdd x26|src  c=1.21582e-19
c3272 532:vdd 138:14  c=3.43404e-18
c3271 532:vdd x28|drn  c=1.03775e-19
c3270 532:vdd 329:2  c=3.27894e-18
c3269 532:vdd 140:14  c=3.44336e-18
c3268 532:vdd 167:16  c=2.53283e-18
c3267 532:vdd 281:4  c=4.15716e-19
c3266 532:vdd 157:16  c=4.03017e-17
c3265 532:vdd 266:4  c=1.83324e-18
c3264 532:vdd 292:4  c=1.15216e-18
c3263 532:vdd 143:14  c=2.94844e-18
c3262 532:vdd 48:rn  c=9.412e-19
c3261 532:vdd 289:4  c=5.27991e-17
c3260 532:vdd 202:9  c=4.34005e-17
c3259 532:vdd 169:16  c=2.60107e-18
c3258 532:vdd 33:rn  c=1.92844e-18
c3257 532:vdd 293:4  c=5.16879e-17
c3256 532:vdd 239:9  c=4.49308e-17
c3255 532:vdd 23:rn  c=1.92844e-18
c3254 532:vdd 247:4  c=2.59023e-19
c3253 532:vdd 420:cn  c=1.20758e-20
c3252 532:vdd 338:2  c=4.90469e-17
c3251 532:vdd 310:2  c=3.86408e-18
c3250 532:vdd 171:16  c=3.45659e-18
c3249 532:vdd 434:3  c=5.4153e-17
c3248 532:vdd gnd  c=7.32059e-21
c3247 532:vdd 49:rn  c=1.92844e-18
c3246 532:vdd 51:rn  c=1.70517e-19
c3245 532:vdd 237:9  c=1.03551e-18
c3244 532:vdd 4:rn  c=1.6265e-18
c3243 532:vdd 435:3  c=5.55286e-17
c3242 532:vdd 354:cn  c=1.70601e-18
c3241 532:vdd 240:9  c=4.7011e-17
c3240 532:vdd 206:9  c=6.19196e-18
c3239 532:vdd 337:2  c=4.29494e-20
c3238 532:vdd 412:cn  c=1.82034e-18
c3237 532:vdd 353:2  c=1.33975e-18
c3236 532:vdd 367:cn  c=8.99218e-19
c3235 532:vdd 311:2  c=1.48594e-18
c3234 532:vdd 390:cn  c=2.83115e-18
c3233 532:vdd 347:2  c=5.27286e-17
c3232 532:vdd 136:14  c=4.93046e-17
c3231 532:vdd 352:2  c=5.14341e-17
c3230 532:vdd m10|x1|gate  c=4.80249e-19
c3229 532:vdd 208:9  c=2.77182e-18
c3228 532:vdd m10|x1|src  c=8.67494e-20
c3227 532:vdd 198:9  c=4.69608e-17
c3226 532:vdd 392:cn  c=1.81037e-18
c3225 532:vdd 144:14  c=4.789e-17
c3224 532:vdd m11|x1|drn  c=9.33909e-20
c3223 532:vdd m11|x1|gate  c=6.08998e-19
c3222 532:vdd m11|x1|src  c=9.00999e-20
c3221 532:vdd m18|x1|bulk  c=2.71746e-16
c3220 532:vdd 269:4  c=2.60889e-18
c3219 532:vdd 242:4  c=1.09387e-18
c3218 532:vdd 252:4  c=2.39037e-18
c3217 532:vdd 40:rn  c=1.64677e-18
c3216 532:vdd 216:9  c=2.60107e-18
c3215 532:vdd 230:9  c=1.03701e-18
c3214 532:vdd 322:2  c=2.64455e-18
c3213 532:vdd 232:9  c=1.44432e-19
c3212 532:vdd 339:2  c=1.15091e-18
c3211 532:vdd x10|drn  c=9.48935e-20
c3210 532:vdd 50:rn  c=1.53286e-18
c3209 532:vdd 312:2  c=3.22513e-18
c3208 532:vdd 340:2  c=1.83143e-18
c3207 532:vdd 431:3  c=3.38322e-18
c3206 532:vdd 294:4  c=1.63412e-17
c3205 532:vdd 351:2  c=1.15091e-18
cg3204 x30|src gnd  c=1.76057e-20
c3203 x30|src 144:14  c=2.36627e-19
c3202 x30|src 71:d  c=7.43977e-19
c3201 x30|src 364:cn  c=4.19174e-20
c3200 x30|src 58:d  c=6.47761e-19
c3199 x30|src 143:14  c=7.76216e-19
c3198 x30|src 64:d  c=7.43977e-19
c3197 x30|src gnd  c=8.65274e-20
c3196 x29|src 437:gnd  c=7.09333e-20
c3195 x29|src 306:2  c=5.48108e-19
c3194 x29|src 351:2  c=6.97626e-19
c3193 x29|src 220:9  c=7.76216e-19
c3192 x29|src 328:2  c=6.97626e-19
c3191 x29|src 364:cn  c=1.01633e-20
c3190 x29|src 308:2  c=1.19594e-19
c3189 x29|src 302:2  c=2.78961e-19
c3188 x29|src 240:9  c=1.31781e-19
c3187 x29|src 337:2  c=3.14123e-20
c3186 x29|src 353:2  c=4.08423e-20
c3185 x22|src 49:rn  c=6.96726e-19
c3184 x22|src 25:rn  c=6.96726e-19
c3183 x22|src 12:rn  c=1.92142e-19
c3182 x22|src 171:16  c=7.76216e-19
c3181 x22|src 8:rn  c=3.02354e-19
c3180 x22|src 151:16  c=1.30206e-19
cg3179 x16|drn gnd  c=3.84513e-19
c3178 x16|drn 182:16  c=3.74528e-19
c3177 x16|drn 146:16  c=3.7307e-19
c3176 x16|drn 153:16  c=2.32269e-20
c3175 x16|drn 50:rn  c=1.3481e-19
c3174 x16|drn 407:cn  c=9.74156e-21
c3173 x16|drn 188:16  c=4.03631e-19
c3172 x15|src 165:16  c=6.66715e-19
c3171 x15|src 196:q  c=7.76216e-19
c3170 x15|src 145:16  c=6.97923e-19
c3169 x15|src 190:q  c=2.36627e-19
cg3168 530:vdd gnd  c=1.07308e-17
c3167 530:vdd 144:14  c=8.76575e-19
c3166 530:vdd 71:d  c=2.07466e-18
c3165 530:vdd 63:d  c=1.7878e-17
c3164 530:vdd 64:d  c=2.07466e-18
c3163 530:vdd 143:14  c=8.05107e-19
c3162 530:vdd 58:d  c=9.12034e-18
c3161 530:vdd m18|x1|bulk  c=2.7209e-18
c3160 530:vdd 466:gnd  c=5.15371e-21
c3159 530:vdd gnd  c=1.40488e-19
c3158 530:vdd x32|src  c=8.64146e-19
cg3157 529:vdd gnd  c=5.98198e-18
c3156 529:vdd 144:14  c=8.83479e-19
c3155 529:vdd 71:d  c=7.65477e-18
c3154 529:vdd 63:d  c=2.14656e-19
c3153 529:vdd x32|src  c=2.88304e-19
c3152 529:vdd m18|x1|bulk  c=6.97054e-18
c3151 529:vdd 58:d  c=5.88792e-20
c3150 529:vdd 56:d  c=8.69176e-19
cg3149 527:vdd gnd  c=7.64393e-18
c3148 527:vdd 144:14  c=2.83143e-18
c3147 527:vdd 61:d  c=1.12959e-18
c3146 527:vdd 143:14  c=2.88237e-18
c3145 527:vdd x32|src  c=5.11826e-19
c3144 527:vdd m18|x1|bulk  c=6.21869e-18
c3143 527:vdd 56:d  c=1.15858e-18
cg3142 vdd gnd  c=5.25058e-17
c3141 vdd 61:d  c=1.07439e-19
c3140 vdd 144:14  c=5.31184e-17
c3139 vdd 468:gnd  c=8.20252e-21
c3138 vdd 71:d  c=6.2034e-18
c3137 vdd 63:d  c=2.36818e-18
c3136 vdd 64:d  c=3.29311e-18
c3135 vdd 56:d  c=7.08601e-19
c3134 vdd 143:14  c=8.76575e-19
c3133 vdd 32:rn  c=1.70116e-17
c3132 vdd 58:d  c=1.25779e-17
c3131 vdd m18|x1|bulk  c=1.51985e-17
c3130 vdd 466:gnd  c=2.56977e-19
c3129 vdd gnd  c=3.73448e-18
c3128 vdd x32|src  c=2.74519e-19
cg3127 526:vdd gnd  c=6.16141e-18
c3126 526:vdd 66:d  c=2.09514e-19
c3125 526:vdd 65:d  c=7.56186e-18
c3124 526:vdd 135:14  c=1.79434e-18
c3123 526:vdd m18|x1|bulk  c=6.5582e-18
c3122 526:vdd x26|src  c=3.48381e-19
c3121 526:vdd 56:d  c=8.36883e-20
cg3120 525:vdd gnd  c=5.08123e-18
c3119 525:vdd 66:d  c=1.75774e-17
c3118 525:vdd 140:14  c=8.05107e-19
c3117 525:vdd 61:d  c=1.98763e-18
c3116 525:vdd 62:d  c=1.75774e-17
c3115 525:vdd 144:14  c=8.76575e-19
c3114 525:vdd 404:cn  c=7.75046e-21
c3113 525:vdd 331:2  c=1.46422e-21
c3112 525:vdd 56:d  c=2.26394e-17
c3111 525:vdd 143:14  c=8.05107e-19
c3110 525:vdd x26|src  c=8.64146e-19
c3109 525:vdd m18|x1|bulk  c=1.28855e-18
c3108 525:vdd 135:14  c=8.76575e-19
c3107 525:vdd 53:d  c=1.98763e-18
c3106 525:vdd 60:d  c=1.98763e-18
c3105 525:vdd 136:14  c=7.57627e-19
c3104 525:vdd x32|src  c=8.64146e-19
c3103 525:vdd 65:d  c=1.98763e-18
cg3102 523:vdd gnd  c=8.48729e-18
c3101 523:vdd 351:2  c=2.04975e-18
c3100 523:vdd 220:9  c=8.05107e-19
c3099 523:vdd 327:2  c=1.7792e-17
c3098 523:vdd 328:2  c=2.04975e-18
c3097 523:vdd m18|x1|bulk  c=2.76991e-18
c3096 523:vdd x28|drn  c=8.64146e-19
c3095 523:vdd 308:2  c=6.16884e-20
c3094 523:vdd 300:2  c=2.67077e-18
c3093 523:vdd 302:2  c=4.89702e-18
c3092 523:vdd 240:9  c=8.76575e-19
c3091 523:vdd 353:2  c=2.88933e-18
c3090 523:vdd 312:2  c=6.39528e-18
c3089 523:vdd 347:2  c=2.52503e-18
cg3088 522:vdd gnd  c=5.29023e-18
c3087 522:vdd 240:9  c=7.92176e-19
c3086 522:vdd 351:2  c=8.02639e-18
c3085 522:vdd 327:2  c=2.35227e-19
c3084 522:vdd 300:2  c=7.63243e-20
c3083 522:vdd x28|drn  c=2.47303e-19
c3082 522:vdd m18|x1|bulk  c=6.32895e-18
c3081 522:vdd 303:2  c=7.37726e-19
cg3080 520:vdd gnd  c=5.23039e-18
c3079 520:vdd 218:9  c=8.05107e-19
c3078 520:vdd 198:9  c=8.76575e-19
c3077 520:vdd 339:2  c=1.98763e-18
c3076 520:vdd 336:2  c=1.75774e-17
c3075 520:vdd 340:2  c=1.98763e-18
c3074 520:vdd 326:2  c=1.75774e-17
c3073 520:vdd 220:9  c=8.05107e-19
c3072 520:vdd 303:2  c=2.26593e-17
c3071 520:vdd m18|x1|bulk  c=1.43044e-18
c3070 520:vdd x27|src  c=7.76216e-19
c3069 520:vdd x28|drn  c=8.64146e-19
c3068 520:vdd 240:9  c=8.76575e-19
c3067 520:vdd 206:9  c=7.66698e-19
c3066 520:vdd 296:2  c=1.98763e-18
c3065 520:vdd 325:2  c=1.98763e-18
cg3064 519:vdd gnd  c=6.16988e-18
c3063 519:vdd 339:2  c=8.13299e-18
c3062 519:vdd 336:2  c=2.4037e-19
c3061 519:vdd m18|x1|bulk  c=5.8073e-18
c3060 519:vdd 198:9  c=3.86836e-19
c3059 519:vdd 303:2  c=7.33017e-19
cg3058 518:vdd gnd  c=7.21068e-18
c3057 518:vdd 240:9  c=2.93806e-18
c3056 518:vdd 340:2  c=2.88183e-19
c3055 518:vdd 220:9  c=3.61567e-18
c3054 518:vdd m18|x1|bulk  c=5.8073e-18
c3053 518:vdd 303:2  c=1.04321e-18
c3052 518:vdd x28|drn  c=4.6719e-19
cg3051 517:vdd gnd  c=7.78853e-18
c3050 517:vdd 218:9  c=4.94928e-18
c3049 517:vdd m18|x1|bulk  c=5.8073e-18
c3048 517:vdd 198:9  c=3.14879e-18
c3047 517:vdd x27|src  c=3.64552e-19
cg3046 516:vdd gnd  c=7.93317e-18
c3045 516:vdd 435:3  c=4.109e-18
c3044 516:vdd m10|x1|src  c=3.84442e-19
c3043 516:vdd m18|x1|bulk  c=5.8073e-18
c3042 516:vdd 433:3  c=5.58979e-18
c3041 516:vdd 206:9  c=7.81442e-20
cg3040 514:vdd gnd  c=6.67909e-18
c3039 514:vdd 230:9  c=2.15257e-17
c3038 514:vdd m10|x1|gate  c=6.85142e-18
c3037 514:vdd m10|x1|src  c=7.77302e-19
c3036 514:vdd m11|x1|drn  c=8.67977e-19
c3035 514:vdd m18|x1|bulk  c=3.28586e-18
c3034 514:vdd 434:3  c=9.61062e-19
c3033 514:vdd 51:rn  c=9.52594e-19
c3032 514:vdd 431:3  c=8.05107e-19
c3031 514:vdd 237:9  c=4.71428e-19
c3030 514:vdd 435:3  c=9.31789e-19
c3029 514:vdd 40:rn  c=1.98268e-18
c3028 514:vdd 433:3  c=8.05107e-19
c3027 514:vdd 27:rn  c=1.75508e-17
c3026 514:vdd 43:rn  c=7.32044e-18
c3025 514:vdd 44:rn  c=1.96335e-19
cg3024 513:vdd gnd  c=7.25554e-18
c3023 513:vdd m11|x1|drn  c=3.67035e-19
c3022 513:vdd m11|x1|gate  c=2.11584e-18
c3021 513:vdd 354:cn  c=6.76249e-18
c3020 513:vdd 338:2  c=2.00761e-19
c3019 513:vdd 310:2  c=1.5245e-19
c3018 513:vdd m18|x1|bulk  c=5.8073e-18
c3017 513:vdd 434:3  c=2.6255e-18
c3016 513:vdd 370:cn  c=3.02532e-21
cg3015 512:vdd gnd  c=6.33659e-18
c3014 512:vdd 435:3  c=3.42942e-19
c3013 512:vdd 237:9  c=2.17848e-20
c3012 512:vdd 232:9  c=6.58004e-20
c3011 512:vdd 230:9  c=6.71507e-18
c3010 512:vdd m18|x1|bulk  c=6.32909e-18
c3009 512:vdd m10|x1|gate  c=2.09412e-18
cg3008 511:vdd gnd  c=7.96208e-18
c3007 511:vdd 338:2  c=3.22569e-18
c3006 511:vdd 322:2  c=5.61097e-18
c3005 511:vdd 370:cn  c=1.88781e-21
c3004 511:vdd m18|x1|bulk  c=5.8073e-18
c3003 511:vdd m11|x1|src  c=3.82304e-19
cg3002 510:vdd gnd  c=7.81753e-18
c3001 510:vdd 239:9  c=3.18369e-18
c3000 510:vdd x12|src  c=3.63093e-19
c2999 510:vdd m18|x1|bulk  c=5.8073e-18
c2998 510:vdd 216:9  c=4.94928e-18
cg2997 509:vdd gnd  c=5.88217e-18
c2996 509:vdd x11|drn  c=2.45091e-19
c2995 509:vdd 367:cn  c=8.43058e-19
c2994 509:vdd 293:4  c=2.15513e-18
c2993 509:vdd 239:9  c=1.98398e-19
c2992 509:vdd 392:cn  c=8.07523e-18
c2991 509:vdd m18|x1|bulk  c=5.8073e-18
c2990 509:vdd 393:cn  c=2.35227e-19
cg2989 508:vdd gnd  c=7.21833e-18
c2988 508:vdd 293:4  c=3.39491e-18
c2987 508:vdd 390:cn  c=2.87226e-19
c2986 508:vdd 269:4  c=3.59389e-18
c2985 508:vdd m18|x1|bulk  c=5.8073e-18
c2984 508:vdd 367:cn  c=1.17557e-18
c2983 508:vdd x11|drn  c=4.64792e-19
cg2982 507:vdd gnd  c=7.18991e-18
c2981 507:vdd 390:cn  c=7.78304e-20
c2980 507:vdd 367:cn  c=1.13094e-18
c2979 507:vdd 208:9  c=3.79618e-18
c2978 507:vdd 202:9  c=2.78826e-18
c2977 507:vdd x10|drn  c=4.5346e-19
c2976 507:vdd m18|x1|bulk  c=5.8073e-18
cg2975 506:vdd gnd  c=6.12736e-18
c2974 506:vdd x10|drn  c=2.3473e-19
c2973 506:vdd 412:cn  c=8.16843e-18
c2972 506:vdd 289:4  c=5.46647e-19
c2971 506:vdd 202:9  c=6.28976e-19
c2970 506:vdd 389:cn  c=2.4037e-19
c2969 506:vdd 367:cn  c=7.91669e-19
c2968 506:vdd 368:cn  c=7.69386e-21
c2967 506:vdd m18|x1|bulk  c=5.8073e-18
cg2966 505:vdd gnd  c=7.83303e-18
c2965 505:vdd 289:4  c=4.029e-18
c2964 505:vdd 252:4  c=4.92338e-18
c2963 505:vdd x10|src  c=3.64863e-19
c2962 505:vdd m18|x1|bulk  c=5.8073e-18
cg2961 503:vdd gnd  c=1.16704e-17
c2960 503:vdd 25:rn  c=2.04873e-18
c2959 503:vdd x21|src  c=8.64146e-19
c2958 503:vdd 48:rn  c=2.89432e-18
c2957 503:vdd 6:rn  c=2.79741e-18
c2956 503:vdd 8:rn  c=5.58759e-18
c2955 503:vdd 412:cn  c=2.73439e-20
c2954 503:vdd 289:4  c=2.63542e-18
c2953 503:vdd 171:16  c=8.05107e-19
c2952 503:vdd 389:cn  c=2.43562e-19
c2951 503:vdd 367:cn  c=2.73439e-20
c2950 503:vdd 158:16  c=2.69348e-21
c2949 503:vdd 151:16  c=8.76575e-19
c2948 503:vdd 252:4  c=6.57679e-18
c2947 503:vdd 49:rn  c=2.04873e-18
c2946 503:vdd 26:rn  c=1.77884e-17
cg2945 501:vdd gnd  c=7.81535e-18
c2944 501:vdd 184:16  c=5.19807e-23
c2943 501:vdd 147:16  c=3.15816e-18
c2942 501:vdd 169:16  c=4.93511e-18
c2941 501:vdd 247:4  c=3.07546e-19
c2940 501:vdd x19|src  c=3.56622e-19
c2939 501:vdd m18|x1|bulk  c=5.8073e-18
cg2938 500:vdd gnd  c=7.149e-18
c2937 500:vdd 4:rn  c=2.23485e-17
c2936 500:vdd x21|src  c=8.64146e-19
c2935 500:vdd 171:16  c=8.05107e-19
c2934 500:vdd 3:rn  c=1.98763e-18
c2933 500:vdd 22:rn  c=1.98763e-18
c2932 500:vdd 147:16  c=8.76575e-19
c2931 500:vdd 151:16  c=8.76575e-19
c2930 500:vdd 33:rn  c=1.98763e-18
c2929 500:vdd 34:rn  c=1.75774e-17
c2928 500:vdd 23:rn  c=1.98763e-18
c2927 500:vdd 24:rn  c=1.75774e-17
c2926 500:vdd 247:4  c=7.14629e-19
c2925 500:vdd 157:16  c=7.51194e-19
c2924 500:vdd x19|src  c=8.64146e-19
c2923 500:vdd 169:16  c=8.05107e-19
cg2922 498:vdd gnd  c=6.51034e-18
c2921 498:vdd 281:4  c=2.22698e-17
c2920 498:vdd 266:4  c=1.98763e-18
c2919 498:vdd 267:4  c=1.75774e-17
c2918 498:vdd 245:4  c=1.98763e-18
c2917 498:vdd 147:16  c=8.76575e-19
c2916 498:vdd 292:4  c=1.98763e-18
c2915 498:vdd 167:16  c=8.05107e-19
c2914 498:vdd 268:4  c=1.75774e-17
c2913 498:vdd 276:4  c=1.98763e-18
c2912 498:vdd x17|drn  c=8.64146e-19
c2911 498:vdd 247:4  c=7.14629e-19
c2910 498:vdd 157:16  c=1.62777e-18
c2909 498:vdd x19|src  c=8.64146e-19
c2908 498:vdd 169:16  c=8.05107e-19
cg2907 497:vdd gnd  c=7.50508e-18
c2906 497:vdd 281:4  c=1.15362e-18
c2905 497:vdd 266:4  c=2.88183e-19
c2904 497:vdd 157:16  c=2.93089e-18
c2903 497:vdd x17|drn  c=4.64639e-19
c2902 497:vdd m18|x1|bulk  c=5.8073e-18
c2901 497:vdd 167:16  c=3.61314e-18
cg2900 495:vdd gnd  c=6.50896e-18
c2899 495:vdd 281:4  c=7.78429e-19
c2898 495:vdd 278:4  c=8.02639e-18
c2897 495:vdd 263:4  c=2.35227e-19
c2896 495:vdd 157:16  c=7.86498e-19
c2895 495:vdd x17|drn  c=2.45053e-19
c2894 495:vdd m18|x1|bulk  c=5.8073e-18
cg2893 494:vdd gnd  c=5.82368e-18
c2892 494:vdd 292:4  c=8.13299e-18
c2891 494:vdd 281:4  c=7.70781e-19
c2890 494:vdd 268:4  c=2.4037e-19
c2889 494:vdd m18|x1|bulk  c=5.8073e-18
c2888 494:vdd 147:16  c=3.86836e-19
cg2887 492:vdd gnd  c=1.45075e-17
c2886 492:vdd x9|drn  c=4.53294e-19
c2885 492:vdd m18|x1|bulk  c=5.8073e-18
c2884 492:vdd 249:4  c=2.77778e-19
cg2883 491:vdd gnd  c=7.88102e-18
c2882 491:vdd 261:4  c=5.61097e-18
c2881 491:vdd 153:16  c=1.91916e-20
c2880 491:vdd 249:4  c=3.24438e-18
c2879 491:vdd x9|src  c=3.82998e-19
c2878 491:vdd m18|x1|bulk  c=5.8073e-18
cg2877 489:vdd gnd  c=1.38528e-17
c2876 489:vdd 190:q  c=8.76575e-19
c2875 489:vdd 261:4  c=6.35179e-18
c2874 489:vdd 145:16  c=2.07323e-18
c2873 489:vdd x14|drn  c=8.64146e-19
c2872 489:vdd 441:gnd  c=1.58687e-19
c2871 489:vdd 153:16  c=5.05071e-19
c2870 489:vdd 249:4  c=2.53131e-18
c2869 489:vdd 165:16  c=2.05008e-18
c2868 489:vdd 166:16  c=1.77931e-17
c2867 489:vdd 196:q  c=8.05107e-19
cg2866 488:vdd gnd  c=6.24281e-18
c2865 488:vdd 166:16  c=2.35227e-19
c2864 488:vdd 165:16  c=8.0264e-18
c2863 488:vdd 153:16  c=1.27808e-20
c2862 488:vdd 152:16  c=8.26483e-19
c2861 488:vdd m18|x1|bulk  c=5.98582e-18
c2860 488:vdd x14|drn  c=2.45053e-19
c2859 488:vdd 190:q  c=7.86897e-19
cg2858 486:vdd gnd  c=6.59852e-18
c2857 486:vdd 189:q  c=1.61864e-18
c2856 486:vdd 190:q  c=8.76575e-19
c2855 486:vdd 148:16  c=1.98763e-18
c2854 486:vdd 192:q  c=8.05107e-19
c2853 486:vdd x13|src  c=7.76216e-19
c2852 486:vdd x14|drn  c=8.64146e-19
c2851 486:vdd 159:16  c=1.98763e-18
c2850 486:vdd 160:16  c=1.75774e-17
c2849 486:vdd 152:16  c=2.48008e-17
c2848 486:vdd 153:16  c=1.01429e-20
c2847 486:vdd 163:16  c=1.98763e-18
c2846 486:vdd 164:16  c=1.75774e-17
c2845 486:vdd 196:q  c=8.05107e-19
cg2844 484:vdd gnd  c=6.61719e-18
c2843 484:vdd 160:16  c=2.4037e-19
c2842 484:vdd 159:16  c=8.133e-18
c2841 484:vdd m18|x1|bulk  c=6.42015e-18
c2840 484:vdd 152:16  c=7.71809e-19
c2839 484:vdd 189:q  c=3.87026e-19
cg2838 483:vdd gnd  c=7.60371e-18
c2837 483:vdd 163:16  c=2.88183e-19
c2836 483:vdd 196:q  c=3.61314e-18
c2835 483:vdd m18|x1|bulk  c=6.05112e-18
c2834 483:vdd 152:16  c=1.15662e-18
c2833 483:vdd 190:q  c=2.9316e-18
c2832 483:vdd x14|drn  c=4.64639e-19
cg2831 482:vdd gnd  c=1.00571e-17
c2830 482:vdd 193:q  c=1.5694e-21
c2829 482:vdd 192:q  c=4.94928e-18
c2828 482:vdd m18|x1|bulk  c=9.89449e-18
c2827 482:vdd 189:q  c=3.14928e-18
c2826 482:vdd x13|src  c=3.64552e-19
cg2825 481:vdd gnd  c=1.08394e-17
c2824 481:vdd 181:16  c=1.82982e-19
c2823 481:vdd 182:16  c=2.9627e-19
c2822 481:vdd 279:4  c=5.04161e-18
c2821 481:vdd 278:4  c=2.05008e-18
c2820 481:vdd 263:4  c=1.77931e-17
c2819 481:vdd 281:4  c=2.07323e-18
c2818 481:vdd 146:16  c=1.39119e-19
c2817 481:vdd 167:16  c=8.05107e-19
c2816 481:vdd x17|drn  c=8.64146e-19
c2815 481:vdd 290:4  c=2.89692e-18
c2814 481:vdd 247:4  c=3.37756e-18
c2813 481:vdd 157:16  c=8.76575e-19
c2812 481:vdd 188:16  c=1.52588e-21
c2811 x17|src 290:4  c=1.71931e-19
c2810 x17|src 281:4  c=6.97923e-19
c2809 x17|src 279:4  c=2.5586e-19
c2808 x17|src 278:4  c=6.66715e-19
c2807 x17|src 167:16  c=7.76216e-19
c2806 x17|src 157:16  c=2.36627e-19
cg2805 480:vdd gnd  c=2.02625e-16
c2804 480:vdd 189:q  c=1.56072e-16
c2803 480:vdd 190:q  c=9.93588e-17
c2802 480:vdd 279:4  c=1.61458e-19
c2801 480:vdd 261:4  c=2.6405e-18
c2800 480:vdd 278:4  c=1.15224e-18
c2799 480:vdd 281:4  c=5.60118e-19
c2798 480:vdd 148:16  c=2.84429e-18
c2797 480:vdd 146:16  c=1.26302e-19
c2796 480:vdd 192:q  c=3.49703e-18
c2795 480:vdd x13|src  c=3.33553e-19
c2794 480:vdd x14|drn  c=2.74519e-19
c2793 480:vdd 167:16  c=2.96048e-19
c2792 480:vdd m18|x1|bulk  c=9.84956e-17
c2791 480:vdd 159:16  c=6.36178e-18
c2790 480:vdd 160:16  c=2.36818e-18
c2789 480:vdd 191:q  c=5.37346e-19
c2788 480:vdd 152:16  c=1.34286e-17
c2787 480:vdd 441:gnd  c=8.60372e-19
c2786 480:vdd 153:16  c=4.59761e-19
c2785 480:vdd 50:rn  c=1.08199e-17
c2784 480:vdd x17|drn  c=5.69781e-20
c2783 480:vdd 249:4  c=5.41291e-17
c2782 480:vdd 163:16  c=7.55432e-18
c2781 480:vdd 285:4  c=3.1434e-19
c2780 480:vdd 290:4  c=7.12614e-18
c2779 480:vdd 164:16  c=2.36818e-18
c2778 480:vdd 165:16  c=1.25565e-18
c2777 480:vdd 196:q  c=3.70797e-18
c2776 480:vdd 157:16  c=1.77702e-17
c2775 480:vdd 188:16  c=2.50699e-18
cg2774 479:vdd gnd  c=1.69857e-17
c2773 479:vdd 4:rn  c=9.12339e-18
c2772 479:vdd x21|src  c=2.74519e-19
c2771 479:vdd 289:4  c=1.27843e-19
c2770 479:vdd 171:16  c=8.76575e-19
c2769 479:vdd 3:rn  c=2.84429e-18
c2768 479:vdd 22:rn  c=2.84429e-18
c2767 479:vdd 250:4  c=1.12203e-18
c2766 479:vdd 147:16  c=5.17166e-17
c2765 479:vdd 292:4  c=8.3321e-20
c2764 479:vdd 151:16  c=5.16226e-17
c2763 479:vdd 32:rn  c=5.57418e-18
c2762 479:vdd 33:rn  c=5.71456e-18
c2761 479:vdd 34:rn  c=2.36818e-18
c2760 479:vdd 23:rn  c=5.71456e-18
c2759 479:vdd 24:rn  c=2.36818e-18
c2758 479:vdd 247:4  c=1.75034e-18
c2757 479:vdd 157:16  c=4.70344e-17
c2756 479:vdd x19|src  c=2.74519e-19
c2755 479:vdd 169:16  c=8.76575e-19
c2754 479:vdd 186:16  c=2.09315e-19
c2753 479:vdd 49:rn  c=1.07439e-19
cg2752 478:vdd gnd  c=1.05113e-17
c2751 478:vdd 181:16  c=1.80192e-17
c2750 478:vdd 182:16  c=2.07332e-18
c2749 478:vdd 278:4  c=2.95389e-19
c2748 478:vdd 263:4  c=1.82982e-19
c2747 478:vdd 146:16  c=2.71164e-18
c2746 478:vdd x9|drn  c=5.39429e-19
c2745 478:vdd m18|x1|bulk  c=4.56362e-18
c2744 478:vdd 184:16  c=9.5326e-20
c2743 478:vdd 188:16  c=2.10197e-18
cg2742 477:vdd gnd  c=2.45577e-17
c2741 477:vdd 181:16  c=3.60849e-18
c2740 477:vdd 182:16  c=5.51136e-18
c2739 477:vdd 278:4  c=6.76024e-19
c2738 477:vdd 146:16  c=7.24239e-18
c2737 477:vdd x9|drn  c=1.68959e-19
c2736 477:vdd m18|x1|bulk  c=5.96148e-18
c2735 477:vdd 50:rn  c=1.54944e-17
c2734 477:vdd 249:4  c=3.09242e-17
c2733 477:vdd 157:16  c=3.81281e-18
c2732 477:vdd 188:16  c=5.876e-18
cg2731 476:vdd gnd  c=2.33079e-17
c2730 476:vdd 66:d  c=2.34292e-18
c2729 476:vdd 140:14  c=8.76575e-19
c2728 476:vdd 61:d  c=5.71456e-18
c2727 476:vdd 421:cn  c=2.05897e-19
c2726 476:vdd 144:14  c=5.17866e-17
c2725 476:vdd 62:d  c=2.36818e-18
c2724 476:vdd 350:2  c=8.34767e-20
c2723 476:vdd 71:d  c=1.07439e-19
c2722 476:vdd 319:2  c=9.20859e-19
c2721 476:vdd 307:2  c=1.37373e-18
c2720 476:vdd 56:d  c=9.36764e-18
c2719 476:vdd 143:14  c=8.76575e-19
c2718 476:vdd x26|src  c=1.45971e-19
c2717 476:vdd 32:rn  c=5.60286e-18
c2716 476:vdd m18|x1|bulk  c=8.00702e-18
c2715 476:vdd 135:14  c=5.09543e-17
c2714 476:vdd 53:d  c=2.9983e-18
c2713 476:vdd 60:d  c=2.965e-18
c2712 476:vdd 348:2  c=1.41169e-20
c2711 476:vdd 347:2  c=4.5685e-20
c2710 476:vdd 136:14  c=4.68821e-17
c2709 476:vdd x32|src  c=2.74519e-19
c2708 476:vdd 65:d  c=5.19279e-18
c2707 476:vdd 352:2  c=3.56609e-18
cg2706 475:vdd gnd  c=1.72939e-17
c2705 475:vdd 25:rn  c=3.03004e-18
c2704 475:vdd 4:rn  c=9.16326e-19
c2703 475:vdd x21|src  c=2.74519e-19
c2702 475:vdd 48:rn  c=5.41376e-17
c2701 475:vdd 6:rn  c=2.03284e-18
c2700 475:vdd 8:rn  c=3.67323e-18
c2699 475:vdd 412:cn  c=5.19283e-19
c2698 475:vdd 289:4  c=4.68155e-17
c2697 475:vdd 171:16  c=8.76575e-19
c2696 475:vdd 202:9  c=4.89621e-19
c2695 475:vdd 251:4  c=2.87028e-18
c2694 475:vdd 151:16  c=5.0926e-17
c2693 475:vdd 252:4  c=2.7012e-18
c2692 475:vdd 242:4  c=5.06617e-18
c2691 475:vdd 12:rn  c=1.28109e-17
c2690 475:vdd 23:rn  c=1.07439e-19
c2689 475:vdd 294:4  c=4.82548e-18
c2688 475:vdd 246:4  c=8.31552e-18
c2687 475:vdd 49:rn  c=6.64403e-18
c2686 475:vdd 26:rn  c=2.36818e-18
cg2685 474:vdd gnd  c=2.22727e-17
c2684 474:vdd 278:4  c=1.07439e-19
c2683 474:vdd 281:4  c=1.00097e-17
c2682 474:vdd 266:4  c=5.76916e-18
c2681 474:vdd 267:4  c=2.36818e-18
c2680 474:vdd 245:4  c=2.84429e-18
c2679 474:vdd 147:16  c=5.17028e-17
c2678 474:vdd 292:4  c=5.18199e-18
c2677 474:vdd 32:rn  c=5.57418e-18
c2676 474:vdd 167:16  c=8.76575e-19
c2675 474:vdd 268:4  c=2.36818e-18
c2674 474:vdd 276:4  c=2.84429e-18
c2673 474:vdd m18|x1|bulk  c=5.8073e-18
c2672 474:vdd x17|drn  c=2.74519e-19
c2671 474:vdd 33:rn  c=1.07439e-19
c2670 474:vdd 157:16  c=9.89663e-17
c2669 474:vdd x19|src  c=2.74519e-19
c2668 474:vdd 419:cn  c=1.68543e-19
c2667 474:vdd 169:16  c=8.76575e-19
cg2666 473:vdd gnd  c=4.25163e-17
c2665 473:vdd 190:q  c=5.17853e-17
c2664 473:vdd 261:4  c=2.53131e-18
c2663 473:vdd 145:16  c=3.05606e-18
c2662 473:vdd x14|drn  c=2.74519e-19
c2661 473:vdd m18|x1|bulk  c=6.00394e-18
c2660 473:vdd 152:16  c=9.19894e-19
c2659 473:vdd 153:16  c=3.43745e-18
c2658 473:vdd 50:rn  c=1.94812e-17
c2657 473:vdd 249:4  c=4.77823e-17
c2656 473:vdd 163:16  c=1.07439e-19
c2655 473:vdd 165:16  c=6.08567e-18
c2654 473:vdd 166:16  c=2.36818e-18
c2653 473:vdd 196:q  c=8.76575e-19
cg2652 472:vdd gnd  c=2.0558e-17
c2651 472:vdd 218:9  c=8.76575e-19
c2650 472:vdd 427:3  c=8.0362e-19
c2649 472:vdd 425:3  c=1.34638e-18
c2648 472:vdd 198:9  c=5.09439e-17
c2647 472:vdd 306:2  c=1.95171e-17
c2646 472:vdd 468:gnd  c=2.26196e-20
c2645 472:vdd 339:2  c=5.19976e-18
c2644 472:vdd 336:2  c=2.344e-18
c2643 472:vdd 340:2  c=5.76916e-18
c2642 472:vdd 326:2  c=2.36818e-18
c2641 472:vdd 351:2  c=1.07439e-19
c2640 472:vdd 220:9  c=8.76575e-19
c2639 472:vdd 303:2  c=9.56511e-18
c2638 472:vdd m18|x1|bulk  c=7.43046e-18
c2637 472:vdd x27|src  c=1.30562e-19
c2636 472:vdd x28|drn  c=2.74519e-19
c2635 472:vdd 435:3  c=3.87456e-18
c2634 472:vdd 240:9  c=5.14171e-17
c2633 472:vdd 206:9  c=4.45166e-17
c2632 472:vdd 296:2  c=3.0753e-18
c2631 472:vdd 325:2  c=3.04707e-18
c2630 472:vdd 347:2  c=1.25828e-19
c2629 472:vdd 426:3  c=1.84488e-21
c2628 x31|src 140:14  c=8.64146e-19
c2627 x31|src 61:d  c=5.67946e-19
c2626 x31|src 421:cn  c=1.26562e-19
c2625 x31|src 144:14  c=1.72587e-19
c2624 x31|src 56:d  c=2.99254e-18
c2623 x31|src 363:cn  c=6.73592e-20
c2622 x31|src 143:14  c=8.64146e-19
c2621 x31|src 32:rn  c=1.63619e-19
c2620 x31|src 135:14  c=2.74519e-19
c2619 x31|src 53:d  c=5.67946e-19
c2618 x31|src 60:d  c=5.67946e-19
c2617 x31|src 348:2  c=3.52481e-20
c2616 x31|src 65:d  c=5.67946e-19
cg2615 471:vdd gnd  c=1.73007e-17
c2614 471:vdd 230:9  c=9.18556e-18
c2613 471:vdd 427:3  c=2.77248e-17
c2612 471:vdd 425:3  c=4.89792e-18
c2611 471:vdd 198:9  c=8.91528e-19
c2610 471:vdd 306:2  c=7.56986e-18
c2609 471:vdd m10|x1|gate  c=2.11976e-18
c2608 471:vdd m10|x1|src  c=1.20565e-19
c2607 471:vdd m11|x1|drn  c=1.36078e-19
c2606 471:vdd 338:2  c=1.29001e-18
c2605 471:vdd m18|x1|bulk  c=2.64116e-18
c2604 471:vdd 434:3  c=6.18629e-17
c2603 471:vdd 51:rn  c=1.14654e-17
c2602 471:vdd 431:3  c=7.55128e-19
c2601 471:vdd 237:9  c=1.50375e-17
c2600 471:vdd 435:3  c=5.61774e-17
c2599 471:vdd 206:9  c=5.31156e-19
c2598 471:vdd 40:rn  c=3.97343e-18
c2597 471:vdd 433:3  c=8.10835e-19
c2596 471:vdd 27:rn  c=2.21739e-18
c2595 471:vdd 43:rn  c=7.4621e-18
c2594 471:vdd 45:rn  c=3.80023e-19
c2593 471:vdd 426:3  c=5.2315e-18
cg2592 470:vdd gnd  c=2.33259e-17
c2591 470:vdd 425:3  c=4.22844e-19
c2590 470:vdd 306:2  c=2.0825e-17
c2589 470:vdd 350:2  c=5.09179e-18
c2588 470:vdd 307:2  c=7.84099e-18
c2587 470:vdd 340:2  c=1.07439e-19
c2586 470:vdd 351:2  c=6.11182e-18
c2585 470:vdd 220:9  c=8.76575e-19
c2584 470:vdd 327:2  c=2.36818e-18
c2583 470:vdd 328:2  c=3.33323e-18
c2582 470:vdd 303:2  c=6.11469e-19
c2581 470:vdd m18|x1|bulk  c=6.87552e-18
c2580 470:vdd x28|drn  c=2.74519e-19
c2579 470:vdd 308:2  c=2.5224e-20
c2578 470:vdd 300:2  c=2.15717e-18
c2577 470:vdd 302:2  c=3.94123e-18
c2576 470:vdd 240:9  c=5.11236e-17
c2575 470:vdd 337:2  c=2.85048e-18
c2574 470:vdd 353:2  c=5.21205e-17
c2573 470:vdd 312:2  c=2.85356e-18
c2572 470:vdd 311:2  c=5.27984e-18
c2571 470:vdd 347:2  c=4.40163e-17
c2570 470:vdd 136:14  c=4.81434e-19
cg2569 x27|drn gnd  c=2.70252e-20
c2568 x27|drn 218:9  c=8.64146e-19
c2567 x27|drn 198:9  c=2.74519e-19
c2566 x27|drn 306:2  c=6.02422e-19
c2565 x27|drn 339:2  c=5.67946e-19
c2564 x27|drn 340:2  c=5.67946e-19
c2563 x27|drn 220:9  c=8.64146e-19
c2562 x27|drn 364:cn  c=5.61441e-20
c2561 x27|drn 303:2  c=2.76381e-18
c2560 x27|drn 240:9  c=2.74519e-19
c2559 x27|drn 296:2  c=5.67946e-19
c2558 x27|drn 325:2  c=5.67946e-19
c2557 x23|src 31:rn  c=1.22649e-20
c2556 x23|src 230:9  c=2.78423e-18
c2555 x23|src 200:9  c=7.66172e-20
c2554 x23|src 306:2  c=2.36035e-20
c2553 x23|src 364:cn  c=2.33856e-20
c2552 x23|src 51:rn  c=9.85428e-20
c2551 x23|src 431:3  c=8.63198e-19
c2550 x23|src 433:3  c=8.62964e-19
c2549 x23|src 40:rn  c=5.5746e-19
c2548 x23|src 43:rn  c=1.21351e-18
c2547 x20|src 4:rn  c=3.32368e-18
c2546 x20|src 171:16  c=8.64146e-19
c2545 x20|src 3:rn  c=5.67946e-19
c2544 x20|src 22:rn  c=5.67946e-19
c2543 x20|src 147:16  c=2.74519e-19
c2542 x20|src 151:16  c=2.74519e-19
c2541 x20|src 33:rn  c=5.67946e-19
c2540 x20|src 23:rn  c=5.67946e-19
c2539 x20|src 169:16  c=8.64146e-19
c2538 x18|drn 281:4  c=3.02023e-18
c2537 x18|drn 266:4  c=5.67946e-19
c2536 x18|drn 245:4  c=5.67946e-19
c2535 x18|drn 147:16  c=2.74519e-19
c2534 x18|drn 292:4  c=5.67946e-19
c2533 x18|drn 167:16  c=8.64146e-19
c2532 x18|drn 276:4  c=5.67946e-19
c2531 x18|drn 157:16  c=2.74519e-19
c2530 x18|drn 169:16  c=8.64146e-19
cg2529 469:vdd gnd  c=2.24245e-17
c2528 469:vdd 182:16  c=5.4461e-19
c2527 469:vdd 279:4  c=3.99565e-18
c2526 469:vdd 278:4  c=6.08567e-18
c2525 469:vdd 263:4  c=2.36818e-18
c2524 469:vdd 281:4  c=3.82894e-18
c2523 469:vdd 266:4  c=1.07439e-19
c2522 469:vdd 167:16  c=8.76575e-19
c2521 469:vdd m18|x1|bulk  c=5.8073e-18
c2520 469:vdd 50:rn  c=6.69332e-18
c2519 469:vdd x17|drn  c=2.74519e-19
c2518 469:vdd 249:4  c=3.83311e-18
c2517 469:vdd 285:4  c=2.15212e-18
c2516 469:vdd 290:4  c=5.54584e-17
c2515 469:vdd 247:4  c=3.20106e-18
c2514 469:vdd 157:16  c=5.07115e-17
c2513 469:vdd 188:16  c=4.25854e-19
c2512 x13|drn 163:16  c=5.67946e-19
c2511 x13|drn 196:q  c=8.64146e-19
c2510 x13|drn 159:16  c=5.67946e-19
c2509 x13|drn 192:q  c=8.64146e-19
c2508 x13|drn 152:16  c=3.58582e-18
c2507 x13|drn 190:q  c=2.74519e-19
c2506 x13|drn 148:16  c=5.67946e-19
c2505 x13|drn 189:q  c=2.74519e-19
cg2504 m11|x1|bulk gnd  c=1.86549e-16
c2503 m11|x1|bulk 340:2  c=1.52797e-17
c2502 m11|x1|bulk 326:2  c=3.83169e-18
c2501 m11|x1|bulk 351:2  c=1.45691e-17
c2500 m11|x1|bulk 327:2  c=4.07148e-18
c2499 m11|x1|bulk 328:2  c=8.67947e-18
c2498 m11|x1|bulk 303:2  c=5.39872e-17
c2497 m11|x1|bulk 433:3  c=8.96592e-18
c2496 m11|x1|bulk 145:16  c=7.24303e-18
c2495 m11|x1|bulk 148:16  c=6.70968e-18
c2494 m11|x1|bulk 459:gnd  c=7.98612e-20
c2493 m11|x1|bulk 146:16  c=8.41341e-18
c2492 m11|x1|bulk 308:2  c=6.15765e-19
c2491 m11|x1|bulk 302:2  c=5.85966e-18
c2490 m11|x1|bulk 218:9  c=1.16145e-17
c2489 m11|x1|bulk 147:16  c=7.39268e-18
c2488 m11|x1|bulk 151:16  c=5.96659e-18
c2487 m11|x1|bulk 65:d  c=1.34464e-17
c2486 m11|x1|bulk 66:d  c=3.83169e-18
c2485 m11|x1|bulk 135:14  c=6.73375e-18
c2484 m11|x1|bulk 220:9  c=7.15617e-18
c2483 m11|x1|bulk 61:d  c=1.48487e-17
c2482 m11|x1|bulk 62:d  c=3.83169e-18
c2481 m11|x1|bulk 53:d  c=7.56968e-18
c2480 m11|x1|bulk 221:9  c=1.40559e-19
c2479 m11|x1|bulk 60:d  c=7.56968e-18
c2478 m11|x1|bulk 404:cn  c=4.97532e-19
c2477 m11|x1|bulk 54:d  c=5.89328e-18
c2476 m11|x1|bulk 71:d  c=1.49826e-17
c2475 m11|x1|bulk 63:d  c=4.08603e-18
c2474 m11|x1|bulk 64:d  c=8.44541e-18
c2473 m11|x1|bulk 56:d  c=5.40809e-17
c2472 m11|x1|bulk 462:gnd  c=1.51243e-19
c2471 m11|x1|bulk 58:d  c=5.8532e-18
c2470 m11|x1|bulk 59:d  c=6.63955e-18
c2469 m11|x1|bulk 437:gnd  c=3.3502e-19
c2468 m11|x1|bulk 436:gnd  c=2.29201e-19
c2467 m11|x1|bulk 438:gnd  c=2.64252e-19
c2466 m11|x1|bulk 138:14  c=8.25247e-18